#       
#       
#       This file was generated by PRODRG version AA100323.0717
#       PRODRG written/copyrighted by Daan van Aalten
#       and Alexander Schuettelkopf
#       
#       Questions/comments to dava@davapc1.bioch.dundee.ac.uk
#       
#       When using this software in a publication, cite:
#       A. W. Schuettelkopf and D. M. F. van Aalten (2004).
#       PRODRG - a tool for high-throughput crystallography
#       of protein-ligand complexes.
#       Acta Crystallogr. D60, 1355--1363.
#       
#       
@<TRIPOS>MOLECULE
IBB  
   48   53    1
SMALL
USER_CHARGES

PRODRG MOLECULE
@<TRIPOS>ATOM
     1  C17        10.360    19.880    14.660   C.ar      1 IBB      -0.013
     2  H17        10.980    20.650    14.200   H         1 IBB       0.007
     3  C18        10.840    19.170    15.780   C.ar      1 IBB      -0.013
     4  H18        11.830    19.390    16.180   H         1 IBB       0.008
     5  C19        10.030    18.180    16.370   C.ar      1 IBB       0.071
     6  O1         10.490    17.500    17.450   O.3       1 IBB      -0.122
     7  H11        11.410    17.830    17.680   H         1 IBB       0.020
     8  C20         8.750    17.870    15.860   C.ar      1 IBB      -0.013
     9  H20         8.140    17.110    16.330   H         1 IBB       0.007
    10  C21         8.270    18.580    14.740   C.ar      1 IBB      -0.013
    11  H9L         7.280    18.350    14.340   H         1 IBB       0.007
    12  C16         9.080    19.580    14.140   C.ar      1 IBB      -0.021
    13  C15         8.640    20.200    13.030   C.ar      1 IBB       0.152
    14  N5          7.420    20.700    12.870   N.ar      1 IBB       0.131
    15  H52         6.650    20.600    13.500   H         1 IBB      -0.008
    16  N6          9.390    20.540    11.980   N.ar      1 IBB      -0.313
    17  C11         8.630    21.270    11.160   C.ar      1 IBB       0.071
    18  C23         8.930    21.860     9.990   C.ar      1 IBB      -0.013
    19  H23         9.930    21.770     9.570   H         1 IBB       0.007
    20  C12         7.390    21.370    11.720   C.ar      1 IBB       0.071
    21  C13         6.390    22.060    11.130   C.ar      1 IBB      -0.013
    22  H13         5.400    22.110    11.590   H         1 IBB       0.007
    23  C14         6.640    22.690     9.900   C.ar      1 IBB      -0.013
    24  H14         5.830    23.240     9.400   H         1 IBB       0.007
    25  C22         7.930    22.610     9.310   C.ar      1 IBB      -0.021
    26  C10         8.200    23.240     8.150   C.ar      1 IBB       0.152
    27  N4          7.350    24.000     7.450   N.ar      1 IBB      -0.313
    28  N3          9.370    23.240     7.510   N.ar      1 IBB       0.131
    29  H33        10.200    22.750     7.800   H         1 IBB      -0.008
    30  C8          9.260    24.000     6.420   C.ar      1 IBB       0.071
    31  C9         10.160    24.310     5.470   C.ar      1 IBB      -0.013
    32  H9         11.180    23.920     5.520   H         1 IBB       0.007
    33  C7          7.990    24.480     6.380   C.ar      1 IBB       0.071
    34  C6          7.550    25.290     5.390   C.ar      1 IBB      -0.012
    35  H6          6.520    25.660     5.390   H         1 IBB       0.007
    36  C5          8.440    25.660     4.370   C.ar      1 IBB      -0.013
    37  H51         8.110    26.310     3.560   H         1 IBB       0.007
    38  C4          9.770    25.160     4.400   C.ar      1 IBB      -0.021
    39  C1         10.600    25.420     3.390   C.2       1 IBB       0.152
    40  N2         11.000    26.650     3.050   N.2       1 IBB      -0.313
    41  C3         12.040    26.530     2.010   C.3       1 IBB       0.071
    42  H31        11.837    27.266     1.232   H         1 IBB      -0.011
    43  H32        13.041    26.569     2.440   H         1 IBB      -0.011
    44  C2         11.730    25.150     1.440   C.3       1 IBB       0.071
    45  H21        12.623    24.664     1.048   H         1 IBB      -0.011
    46  H22        10.903    25.254     0.737   H         1 IBB      -0.011
    47  N1         11.230    24.480     2.660   N.2       1 IBB       0.015
    48  H12        11.230    23.500     2.840   H         1 IBB      -0.008
@<TRIPOS>BOND
    1    1    2 1 
    2    1    3 ar
    3   12    1 ar
    4    3    4 1 
    5    5    3 ar
    6    5    6 1 
    7    5    8 ar
    8    6    7 1 
    9    8    9 1 
   10    8   10 ar
   11   10   11 1 
   12   12   10 ar
   13   12   13 1 
   14   13   14 ar
   15   13   16 ar
   16   14   15 1 
   17   20   14 ar
   18   17   16 ar
   19   17   18 ar
   20   17   20 ar
   21   18   19 1 
   22   25   18 ar
   23   20   21 ar
   24   21   22 1 
   25   21   23 ar
   26   23   24 1 
   27   25   23 ar
   28   25   26 1 
   29   26   27 ar
   30   26   28 ar
   31   33   27 ar
   32   28   29 1 
   33   30   28 ar
   34   30   31 ar
   35   30   33 ar
   36   31   32 1 
   37   38   31 ar
   38   33   34 ar
   39   34   35 1 
   40   34   36 ar
   41   36   37 1 
   42   38   36 ar
   43   38   39 1 
   44   39   40 2 
   45   39   47 1 
   46   41   40 1 
   47   41   42 1 
   48   41   43 1 
   49   41   44 1 
   50   44   45 1 
   51   44   46 1 
   52   44   47 1 
   53   47   48 1 
@<TRIPOS>SUBSTRUCTURE
  1  IBB    1  
