@<TRIPOS>MOLECULE
    IBB
   48    53     0     0     0
SMALL
USER_CHARGES


@<TRIPOS>ATOM
      1 C17        10.3600   19.8800   14.6600 ca         1 IBB     -0.061500
      2 H17        10.9800   20.6500   14.2000 ha         1 IBB      0.146500
      3 C18        10.8400   19.1700   15.7800 ca         1 IBB     -0.190500
      4 H18        11.8300   19.3900   16.1800 ha         1 IBB      0.148500
      5 C19        10.0300   18.1800   16.3700 ca         1 IBB      0.143100
      6 O1         10.4900   17.5000   17.4500 oh         1 IBB     -0.492100
      7 H11        11.4100   17.8300   17.6800 ho         1 IBB      0.424000
      8 C20         8.7500   17.8700   15.8600 ca         1 IBB     -0.190500
      9 H20         8.1400   17.1100   16.3300 ha         1 IBB      0.148500
     10 C21         8.2700   18.5800   14.7400 ca         1 IBB     -0.061500
     11 H9L         7.2800   18.3500   14.3400 ha         1 IBB      0.146500
     12 C16         9.0800   19.5800   14.1400 ca         1 IBB     -0.158900
     13 C15         8.6400   20.2000   13.0300 cc         1 IBB      0.481400
     14 N5          7.4200   20.7000   12.8700 na         1 IBB     -0.279300
     15 H52         6.6500   20.6000   13.5000 hn         1 IBB      0.308700
     16 N6          9.3900   20.5400   11.9800 nd         1 IBB     -0.561100
     17 C11         8.6300   21.2700   11.1600 ca         1 IBB      0.061400
     18 C23         8.9300   21.8600    9.9900 ca         1 IBB     -0.056000
     19 H23         9.9300   21.7700    9.5700 ha         1 IBB      0.148000
     20 C12         7.3900   21.3700   11.7200 ca         1 IBB     -0.056200
     21 C13         6.3900   22.0600   11.1300 ca         1 IBB     -0.141000
     22 H13         5.4000   22.1100   11.5900 ha         1 IBB      0.142000
     23 C14         6.6400   22.6900    9.9000 ca         1 IBB     -0.070000
     24 H14         5.8300   23.2400    9.4000 ha         1 IBB      0.160000
     25 C22         7.9300   22.6100    9.3100 ca         1 IBB     -0.139900
     26 C10         8.2000   23.2400    8.1500 cc         1 IBB      0.481400
     27 N4          7.3500   24.0000    7.4500 nd         1 IBB     -0.566100
     28 N3          9.3700   23.2400    7.5100 na         1 IBB     -0.278300
     29 H33        10.2000   22.7500    7.8000 hn         1 IBB      0.308700
     30 C8          9.2600   24.0000    6.4200 ca         1 IBB     -0.084200
     31 C9         10.1600   24.3100    5.4700 ca         1 IBB     -0.101000
     32 H9         11.1800   23.9200    5.5200 ha         1 IBB      0.152000
     33 C7          7.9900   24.4800    6.3800 ca         1 IBB      0.084400
     34 C6          7.5500   25.2900    5.3900 ca         1 IBB     -0.082000
     35 H6          6.5200   25.6600    5.3900 ha         1 IBB      0.151000
     36 C5          8.4400   25.6600    4.3700 ca         1 IBB     -0.116000
     37 H51         8.1100   26.3100    3.5600 ha         1 IBB      0.152000
     38 C4          9.7700   25.1600    4.4000 ca         1 IBB     -0.113900
     39 C1         10.6000   25.4200    3.3900 ce         1 IBB      0.586800
     40 N2         11.0000   26.6500    3.0500 n2         1 IBB     -0.600900
     41 C3         12.0400   26.5300    2.0100 c3         1 IBB      0.074800
     42 H31        11.8370   27.2660    1.2320 h1         1 IBB      0.068200
     43 H32        13.0410   26.5690    2.4400 h1         1 IBB      0.068200
     44 C2         11.7300   25.1500    1.4400 c3         1 IBB      0.123800
     45 H21        12.6230   24.6640    1.0480 h1         1 IBB      0.053200
     46 H22        10.9030   25.2540    0.7370 h1         1 IBB      0.053200
     47 N1         11.2300   24.4800    2.6600 nu         1 IBB     -0.807200
     48 H12        11.2300   23.5000    2.8400 hn         1 IBB      0.391800
@<TRIPOS>BOND
     1    1    2 1
     2    1    3 ar
     3    1   12 ar
     4    3    4 1
     5    3    5 ar
     6    5    6 1
     7    5    8 ar
     8    6    7 1
     9    8    9 1
    10    8   10 ar
    11   10   11 1
    12   10   12 ar
    13   12   13 1
    14   13   14 ar
    15   13   16 ar
    16   14   15 1
    17   14   20 ar
    18   16   17 ar
    19   17   18 ar
    20   17   20 ar
    21   18   19 1
    22   18   25 ar
    23   20   21 ar
    24   21   22 1
    25   21   23 ar
    26   23   24 1
    27   23   25 ar
    28   25   26 1
    29   26   27 ar
    30   26   28 ar
    31   27   33 ar
    32   28   29 1
    33   28   30 ar
    34   30   31 ar
    35   30   33 ar
    36   31   32 1
    37   31   38 ar
    38   33   34 ar
    39   34   35 1
    40   34   36 ar
    41   36   37 1
    42   36   38 ar
    43   38   39 1
    44   39   40 2
    45   39   47 1
    46   40   41 1
    47   41   42 1
    48   41   43 1
    49   41   44 1
    50   44   45 1
    51   44   46 1
    52   44   47 1
    53   47   48 1
