@<TRIPOS>MOLECULE
    MOL
   48    53     0     0     0
SMALL
USER_CHARGES


@<TRIPOS>ATOM
      1 C17        10.4741   19.1804   14.3965 ca       115 MOL     -0.061500
      2 H17        11.1969   19.5249   13.6624 ha       115 MOL      0.146500
      3 C18        10.9255   18.4234   15.4902 ca       115 MOL     -0.190500
      4 H18        11.9825   18.1938   15.5875 ha       115 MOL      0.148500
      5 C19        10.0137   17.9661   16.4535 ca       115 MOL      0.143100
      6 O1         10.4472   17.2299   17.5172 oh       115 MOL     -0.492100
      7 H11        11.4109   17.1142   17.4510 ho       115 MOL      0.424000
      8 C20         8.6508   18.2675   16.3217 ca       115 MOL     -0.190500
      9 H20         7.9446   17.9136   17.0674 ha       115 MOL      0.148500
     10 C21         8.1975   19.0245   15.2290 ca       115 MOL     -0.061500
     11 H9L         7.1374   19.2449   15.1475 ha       115 MOL      0.146500
     12 C16         9.1041   19.4902   14.2527 ca       115 MOL     -0.158900
     13 C15         8.6293   20.2832   13.1067 cc       115 MOL      0.481400
     14 N5          7.2849   20.6495   12.9092 na       115 MOL     -0.279300
     15 H52         6.4883   20.4371   13.4914 hn       115 MOL      0.308700
     16 N6          9.4384   20.7392   12.1261 nd       115 MOL     -0.561100
     17 C11         8.5917   21.3981   11.3053 ca       115 MOL      0.061400
     18 C23         8.9215   22.0661   10.1207 ca       115 MOL     -0.056000
     19 H23         9.9518   22.0887    9.7794 ha       115 MOL      0.148000
     20 C12         7.3149   21.3559   11.7514 ca       115 MOL     -0.056200
     21 C13         6.2503   21.9608   11.0826 ca       115 MOL     -0.141000
     22 H13         5.2360   21.9085   11.4672 ha       115 MOL      0.142000
     23 C14         6.5493   22.6431    9.8851 ca       115 MOL     -0.070000
     24 H14         5.7414   23.1238    9.3408 ha       115 MOL      0.160000
     25 C22         7.8840   22.7026    9.3926 ca       115 MOL     -0.139900
     26 C10         8.1884   23.4135    8.1408 cc       115 MOL      0.481400
     27 N4          7.2627   24.0667    7.4059 nd       115 MOL     -0.566100
     28 N3          9.4744   23.4843    7.5737 na       115 MOL     -0.278300
     29 H33        10.3328   23.0844    7.9230 hn       115 MOL      0.308700
     30 C8          9.2854   24.2141    6.4456 ca       115 MOL     -0.084200
     31 C9         10.2359   24.5840    5.4914 ca       115 MOL     -0.101000
     32 H9         11.2756   24.2941    5.6103 ha       115 MOL      0.152000
     33 C7          7.9768   24.5490    6.3658 ca       115 MOL      0.084400
     34 C6          7.4964   25.3095    5.2959 ca       115 MOL     -0.082000
     35 H6          6.4471   25.5826    5.2305 ha       115 MOL      0.151000
     36 C5          8.4167   25.7094    4.3021 ca       115 MOL     -0.116000
     37 H51         8.0545   26.2987    3.4647 ha       115 MOL      0.152000
     38 C4          9.7922   25.3474    4.3824 ca       115 MOL     -0.113900
     39 C1         10.7549   25.7725    3.3195 ce       115 MOL      0.586800
     40 N2         10.4058   26.5022    2.3222 n2       115 MOL     -0.600900
     41 C3         11.3602   26.2785    1.2177 c3       115 MOL      0.074800
     42 H31        10.8409   25.9362    0.3139 h1       115 MOL      0.068200
     43 H32        11.9155   27.2000    1.0023 h1       115 MOL      0.068200
     44 C2         12.3147   25.1793    1.7608 c3       115 MOL      0.123800
     45 H21        13.3621   25.4985    1.6879 h1       115 MOL      0.053200
     46 H22        12.1707   24.2373    1.2163 h1       115 MOL      0.053200
     47 N1         11.9076   25.0314    3.1558 nu       115 MOL     -0.807200
     48 H12        11.9256   24.1100    3.5732 hn       115 MOL      0.391800
@<TRIPOS>BOND
     1    1    2 1
     2    1    3 ar
     3    1   12 ar
     4    3    4 1
     5    3    5 ar
     6    5    6 1
     7    5    8 ar
     8    6    7 1
     9    8    9 1
    10    8   10 ar
    11   10   11 1
    12   10   12 ar
    13   12   13 1
    14   13   14 ar
    15   13   16 ar
    16   14   15 1
    17   14   20 ar
    18   16   17 ar
    19   17   18 ar
    20   17   20 ar
    21   18   19 1
    22   18   25 ar
    23   20   21 ar
    24   21   22 1
    25   21   23 ar
    26   23   24 1
    27   23   25 ar
    28   25   26 1
    29   26   27 ar
    30   26   28 ar
    31   27   33 ar
    32   28   29 1
    33   28   30 ar
    34   30   31 ar
    35   30   33 ar
    36   31   32 1
    37   31   38 ar
    38   33   34 ar
    39   34   35 1
    40   34   36 ar
    41   36   37 1
    42   36   38 ar
    43   38   39 1
    44   39   40 2
    45   39   47 1
    46   40   41 1
    47   41   42 1
    48   41   43 1
    49   41   44 1
    50   44   45 1
    51   44   46 1
    52   44   47 1
    53   47   48 1
